Version 4
SHEET 1 880 680
WIRE -528 -240 -704 -240
WIRE -368 -240 -464 -240
WIRE -704 -160 -704 -240
WIRE -528 -128 -608 -128
WIRE -368 -128 -368 -240
WIRE -368 -128 -464 -128
WIRE -240 -128 -272 -128
WIRE -96 -128 -160 -128
WIRE -240 -96 -272 -96
WIRE -96 -96 -160 -96
WIRE -608 -64 -608 -128
WIRE -368 -64 -368 -128
WIRE -320 -64 -368 -64
WIRE -240 -64 -320 -64
WIRE -96 -64 -160 -64
WIRE -368 0 -368 -64
WIRE -704 80 -704 -80
WIRE -608 80 -608 16
WIRE -368 176 -368 80
FLAG -368 176 0
FLAG -320 -64 C
FLAG -608 -128 B
FLAG -272 -128 A
FLAG -272 -96 B
FLAG -96 -128 A_disp
FLAG -96 -96 B_disp
FLAG -96 -64 C_disp
FLAG -608 80 0
FLAG -704 80 0
FLAG -704 -240 A
SYMBOL voltage -608 -80 R0
WINDOW 3 -49 21 Invisible 2
WINDOW 123 0 0 Left 2
WINDOW 39 -153 12 Left 2
SYMATTR Value PULSE(0 5 0 1n 1n 1m 2m 4)
SYMATTR InstName VB
SYMBOL diode -528 -224 R270
WINDOW 0 32 32 VTop 2
WINDOW 3 0 32 VBottom 2
SYMATTR InstName D1
SYMATTR Value 1N914
SYMBOL res -352 96 R180
WINDOW 0 36 76 Left 2
WINDOW 3 36 40 Left 2
SYMATTR InstName R1
SYMATTR Value 1k
SYMBOL diode -528 -112 R270
WINDOW 0 32 32 VTop 2
WINDOW 3 0 32 VBottom 2
SYMATTR InstName D2
SYMATTR Value 1N914
SYMBOL Digital\\dview10 -224 16 R0
SYMATTR InstName U1
SYMBOL voltage -704 -176 R0
WINDOW 3 -49 21 Invisible 2
WINDOW 123 0 0 Left 2
WINDOW 39 -153 12 Left 2
SYMATTR Value PULSE(0 5 0 1n 1n 2m 4m 2)
SYMATTR InstName VA
TEXT -698 156 Left 2 !.tran 8m
TEXT -264 -232 Left 2 !.lib dview.lib
