Version 4
SHEET 1 880 680
WIRE 400 -208 -80 -208
WIRE 400 -80 400 -208
WIRE -352 -48 -496 -48
WIRE -80 -48 -256 -48
WIRE 64 -48 0 -48
WIRE -496 16 -496 -48
WIRE -352 32 -352 -48
WIRE -256 32 -256 -48
WIRE 400 112 400 0
WIRE 400 112 -80 112
WIRE 400 128 400 112
WIRE -496 176 -496 96
WIRE -352 176 -352 112
WIRE -352 176 -496 176
WIRE -256 176 -256 112
WIRE 0 176 0 -48
WIRE 0 176 -256 176
WIRE -496 192 -496 176
FLAG 400 -208 Vo
FLAG 400 128 0
FLAG -496 192 0
SYMBOL res 384 -96 R0
SYMATTR InstName R1
SYMATTR Value 15
SYMBOL ind2 -368 16 R0
WINDOW 0 -21 29 Left 2
WINDOW 3 -35 81 Left 2
SYMATTR InstName L1
SYMATTR Value 1m
SYMATTR Type ind
SYMBOL ind2 -240 16 M0
WINDOW 0 -39 28 Left 2
WINDOW 3 -55 80 Left 2
SYMATTR InstName L2
SYMATTR Value 5.6µ
SYMATTR Type ind
SYMBOL voltage -496 0 R0
WINDOW 3 -63 -110 Left 2
WINDOW 123 0 0 Left 2
WINDOW 39 -59 -73 Left 2
SYMATTR Value SINE(0 340 50)
SYMATTR SpiceLine Rser=0.1m
SYMATTR InstName V1
TEXT 464 -168 Left 2 !.lib 1N4007.REV0.LIB
TEXT 456 -216 Left 2 !.tran 0 100m 0 startup
TEXT -352 -72 Left 2 !K L1 L2 1
