Version 4
SHEET 1 880 680
WIRE -16 144 -176 144
WIRE 272 144 64 144
WIRE -176 192 -176 144
WIRE 272 192 272 144
WIRE -176 320 -176 272
WIRE -96 320 -176 320
WIRE 272 320 272 256
WIRE 272 320 -96 320
FLAG 272 144 Vo
FLAG -96 320 0
SYMBOL voltage -176 176 R0
WINDOW 3 24 44 Left 2
WINDOW 123 0 0 Left 0
WINDOW 39 0 0 Left 0
SYMATTR Value 5
SYMATTR InstName Vs
SYMBOL res -32 160 R270
WINDOW 0 32 56 VTop 2
WINDOW 3 0 56 VBottom 2
SYMATTR InstName Rs
SYMATTR Value 470
SYMBOL AutoGenerated\\BZX5V1 272 224 R270
SYMATTR InstName U1
TEXT -80 352 Left 2 !.INCLUDE bzx55c5v1.txt
TEXT -80 392 Left 2 !.dc Vs 0 10 1
